Version 4
SHEET 1 880 680
WIRE 192 128 112 128
WIRE 304 144 256 144
WIRE 16 160 -160 160
WIRE 112 160 112 128
WIRE 112 160 80 160
WIRE 160 160 160 -16
WIRE 192 160 160 160
WIRE -160 192 -160 160
WIRE 304 224 304 144
WIRE 400 224 304 224
WIRE 112 240 112 160
WIRE 304 256 304 224
WIRE 400 304 400 224
WIRE 304 352 304 320
WIRE -160 464 -160 272
WIRE 112 464 112 320
WIRE 112 464 -160 464
WIRE 304 464 304 432
WIRE 304 464 112 464
WIRE 400 464 400 384
WIRE 400 464 304 464
WIRE 112 512 112 464
FLAG 112 512 0
FLAG 160 -16 Vout
FLAG 112 160 Vin
SYMBOL AutoGenerated\\LM317 224 144 R180
SYMATTR InstName U1
SYMBOL res 96 224 R0
SYMATTR InstName R1
SYMATTR Value 2.2k
SYMBOL res 288 336 R0
SYMATTR InstName R2
SYMATTR Value 1
SYMBOL res 384 288 R0
SYMATTR InstName R3
SYMATTR Value 10
SYMBOL cap 288 256 R0
SYMATTR InstName C1
SYMATTR Value 1000µ
SYMBOL cap 16 176 R270
WINDOW 0 32 32 VTop 2
WINDOW 3 0 32 VBottom 2
SYMATTR InstName C2
SYMATTR Value 220µ
SYMBOL voltage -160 176 R0
WINDOW 3 -170 103 Left 2
WINDOW 123 24 124 Left 2
WINDOW 39 0 0 Left 0
SYMATTR InstName V1
SYMATTR Value SINE(0 1 200)
SYMATTR Value2 AC 1
TEXT 144 32 Left 2 !;ac dec 100 1 1G
TEXT 424 96 Left 2 !.tran 0 200m 0
TEXT 424 48 Left 2 !;step param R 1 100k 1000
